22
XYZ file generated by Avogadro.
C     -3.00000    1.26370   -0.24040
C     -3.35730   -0.20560    0.07570
C     -1.56130    1.59070    0.21220
H      0.46250    0.84840   -0.06660
H     -0.53190    0.78980   -1.51200
C     -0.54250    0.62260   -0.43180
H     -1.49590    1.53520    1.30120
H     -4.66600   -0.37010   -1.38480
C     -2.34380   -1.17220   -0.58080
H     -3.35360   -0.35200    1.15930
O     -4.66730   -0.48960   -0.41790
C     -0.88540   -0.86430   -0.15650
H     -2.59500   -2.20390   -0.32180
H     -2.42020   -1.08970   -1.66820
H     -3.09400    1.44670   -1.31400
H     -3.70100    1.93060    0.26750
H     -1.31600    2.61710   -0.07090
C     -0.61890   -1.25630    1.31630
H     -0.22340   -1.47730   -0.77360
H     -1.24460   -0.69070    2.00900
H     -0.82040   -2.31920    1.46890
H      0.42640   -1.07290    1.57580
